14
-1  1
C -2.3472192308 -0.2116603839  0.0933387742
O -2.476103426  0.6534012855  0.9795377018
O -3.0798483314 -1.1493463748 -0.2371880607
C -1.0159715024 -0.1057862291 -0.71513818
N -0.3984547485  1.1780437181 -0.5116049881
H -1.1974386439 -0.3087705635 -1.7756578346
H -0.3549876902 -0.9262721436 -0.3462365679
C  0.9798073249  1.2284586185 -0.7405653573
P  2.0015909852 -0.0036539089  0.2274669207
H  1.4145987634  2.2029634557 -0.4873312092
H  1.244988236  1.006833428 -1.780657289
O  3.1220491107 -0.5739776686 -0.517554305
O  1.6676697849 -0.1341729679  1.6388224072
H -0.7415358296  1.5184431803  0.3894241276


